REMARK  7 active torsions:
REMARK  status: ('A' for Active; 'I' for Inactive)
REMARK    1  A    between atoms: C_2  and  C_7 
REMARK    2  A    between atoms: C_4  and  C_11 
REMARK    3  A    between atoms: C_7  and  O_13 
REMARK    4  A    between atoms: C_11  and  N_17 
REMARK    5  A    between atoms: O_13  and  C_19 
REMARK       I    between atoms: N_17  and  C_23 
REMARK    6  A    between atoms: C_35  and  O_38 
REMARK    7  A    between atoms: O_38  and  C_39 
ROOT
ATOM      1  C   LIG d   1       3.573   0.068  -0.036  0.00  0.00     0.007 C 
ATOM      2  C   LIG d   1       4.346   1.428   0.010  0.00  0.00    -0.014 C 
ATOM      3  C   LIG d   1       2.086   0.159  -0.518  0.00  0.00    -0.000 C 
ATOM      4  C   LIG d   1       4.399  -0.840  -1.005  0.00  0.00     0.013 C 
ATOM      5  C   LIG d   1       3.468   2.671   0.304  0.00  0.00     0.013 C 
ATOM      6  C   LIG d   1       5.006   1.478  -1.378  0.00  0.00     0.012 C 
ATOM      7  C   LIG d   1       1.261   1.346   0.077  0.00  0.00    -0.032 C 
ATOM      8  C   LIG d   1       1.353  -1.187  -0.332  0.00  0.00     0.006 C 
ATOM      9  C   LIG d   1       5.493   0.052  -1.618  0.00  0.00     0.008 C 
ATOM     10  C   LIG d   1       2.060   2.627  -0.298  0.00  0.00     0.011 C 
ATOM     11  C   LIG d   1      -0.223   1.372  -0.547  0.00  0.00    -0.032 C 
ATOM     12  C   LIG d   1       1.233   1.243   1.639  0.00  0.00     0.016 C 
ATOM     13  C   LIG d   1      -0.051  -1.167  -0.944  0.00  0.00     0.006 C 
ATOM     14  C   LIG d   1      -0.913  -0.034  -0.339  0.00  0.00     0.003 C 
ATOM     15  C   LIG d   1      -1.107   2.444   0.154  0.00  0.00     0.011 C 
ATOM     16  C   LIG d   1      -0.159   1.758  -2.059  0.00  0.00     0.016 C 
ATOM     17  C   LIG d   1      -2.467  -0.170  -0.613  0.00  0.00    -0.035 C 
ATOM     18  C   LIG d   1      -2.594   2.382  -0.228  0.00  0.00     0.007 C 
ATOM     19  C   LIG d   1      -3.206   1.005   0.117  0.00  0.00     0.004 C 
ATOM     20  C   LIG d   1      -2.956  -1.520   0.019  0.00  0.00     0.012 C 
ATOM     21  C   LIG d   1      -2.801  -0.215  -2.133  0.00  0.00     0.016 C 
ATOM     22  C   LIG d   1      -4.784   0.969   0.099  0.00  0.00    -0.017 C 
ATOM     23  C   LIG d   1      -4.345  -1.489   0.686  0.00  0.00     0.034 C 
ATOM     24  C   LIG d   1      -5.294  -0.502  -0.003  0.00  0.00     0.140 C 
ATOM     25  C   LIG d   1      -5.291   1.622   1.412  0.00  0.00     0.018 C 
ATOM     26  C   LIG d   1      -5.393   1.762  -1.081  0.00  0.00     0.018 C 
ENDROOT
BRANCH   4  27
ATOM     27  C   LIG d   1       4.891  -2.186  -0.407  0.00  0.00     0.084 C 
ATOM     28  C   LIG d   1       5.483  -3.113  -1.480  0.00  0.00     0.032 C 
BRANCH  27  29
ATOM     29  N   LIG d   1       5.877  -1.999   0.657  0.00  0.00    -0.357 N 
ATOM     30  C   LIG d   1       5.671  -2.186   1.970  0.00  0.00     0.213 C 
ATOM     31  C   LIG d   1       6.864  -1.918   2.879  0.00  0.00     0.117 C 
ATOM     32  O   LIG d   1       4.595  -2.540   2.451  0.00  0.00    -0.274 OA
ATOM     33  H   LIG d   1       6.798  -1.702   0.368  0.00  0.00     0.162 HD
ENDBRANCH  27  29
ENDBRANCH   4  27
BRANCH   2  34
ATOM     34  C   LIG d   1       5.425   1.367   1.126  0.00  0.00     0.188 C 
BRANCH  34  35
ATOM     35  O   LIG d   1       6.214   2.551   1.193  0.00  0.00    -0.321 OA
BRANCH  35  36
ATOM     36  C   LIG d   1       7.521   2.529   0.871  0.00  0.00     0.254 C 
ATOM     37  C   LIG d   1       8.171   3.899   1.007  0.00  0.00     0.126 C 
ATOM     38  O   LIG d   1       8.164   1.547   0.501  0.00  0.00    -0.266 OA
ENDBRANCH  35  36
ENDBRANCH  34  35
ENDBRANCH   2  34
BRANCH  24  39
ATOM     39  O   LIG d   1      -6.612  -0.636   0.527  0.00  0.00    -0.316 OA
BRANCH  39  40
ATOM     40  C   LIG d   1      -7.498  -1.487  -0.022  0.00  0.00     0.255 C 
ATOM     41  C   LIG d   1      -8.845  -1.456   0.688  0.00  0.00     0.126 C 
ATOM     42  O   LIG d   1      -7.297  -2.229  -0.984  0.00  0.00    -0.266 OA
ENDBRANCH  39  40
ENDBRANCH  24  39
TORSDOF 7
